%chk=C:\Users\shaoqz\OneDrive\Zhongyue\enzyme_workflow\Test_file\test.chk
# hf/3-21g geom=connectivity

Title Card Required

0 1
 C                0   -0.73636367    1.19090907    0.00000000 L H 2
 H                0   -0.37970925    0.18209907    0.00000000 H
 H                0   -0.37969083    1.69530726    0.87365150 H
 H                0   -0.37969083    1.69530726   -0.87365150 H
 H                0   -1.80636367    1.19092226    0.00000000 H

 1 2 3 4 5
 2
 3
 4
 5

